  USGS MODFLOW MODEL BATCH-MODE REPORT

 spring.nam                                                                                                                                                                                              
  Specified name file does not exist.
  Processing will continue with the next name file in modflow.bf.
