  USGS MODFLOW MODEL BATCH-MODE REPORT

 spring.nam                                                                      
