  USGS MODFLOW MODEL BATCH-MODE REPORT

 spring.nam                                                                      
  Normal termination of simulation.
