                                  MODFLOW-2005     
      U.S. GEOLOGICAL SURVEY MODULAR FINITE-DIFFERENCE GROUND-WATER FLOW MODEL
                            VERSION 1.12.00 2/3/2017

 LIST FILE: OUTPUT.DAT
                         UNIT    7
 ILLEGAL FILE TYPE IN NAME FILE: BAS
