  M2Kto2005 converter version 1.2       
 
  MODOUT:           0
  Maximum number of variables:        2000
  Maximum number of file names:         300
 

 OPENING OUTPUT.DAT
 FILE TYPE:LIST   UNIT   7

 OPENING BAS.DAT
 FILE TYPE:BAS   UNIT   1

 OPENING BCF.DAT
 FILE TYPE:BCF   UNIT  11

 OPENING OC.DAT
 FILE TYPE:OC   UNIT  22

 OPENING WEL.DAT
 FILE TYPE:WEL   UNIT  12

 OPENING DRN.DAT
 FILE TYPE:DRN   UNIT  13

 OPENING RCH.DAT
 FILE TYPE:RCH   UNIT  18

 OPENING HFB1.DAT
 FILE TYPE:HFB   UNIT  26

 OPENING PCG2.DAT
 FILE TYPE:PCG   UNIT  23

 OPENING BUDGET.DAT
 FILE TYPE:DATA(BINARY)   UNIT  50

 OPENING HEADS.DAT
 FILE TYPE:DATA(BINARY)   UNIT  51

 OPENING DDOWN.DAT
 FILE TYPE:DATA(BINARY)   UNIT  52

 OPENING MT3D.FLO
 FILE TYPE:DATA(BINARY)   UNIT  32
  MODINP:           0
  DIS file must be specified for MODFLOW to run
