  USGS MODFLOW MODEL BATCH-MODE REPORT

 SPRING.NAM                                                                                                                                                                                              
